Version 4
SHEET 1 880 680
WIRE 80 64 -272 64
WIRE -272 80 -272 64
WIRE 80 176 80 144
WIRE 192 176 80 176
WIRE 80 192 80 176
WIRE -272 288 -272 160
WIRE 80 288 80 256
FLAG 192 176 OUTPUT
FLAG 80 288 0
FLAG -272 288 0
FLAG 80 64 VIN
SYMBOL res 64 48 R0
SYMATTR InstName R1
SYMATTR Value 50
SYMATTR SpiceLine tol=1 pwr=0.1
SYMBOL cap 64 192 R0
SYMATTR InstName C1
SYMATTR Value 1µ
SYMATTR SpiceLine V=4 Irms=0 Rser=0 Lser=0 mfg="Murata" pn="GRM152R60G105ME15" type="X5R"
SYMBOL voltage -272 64 R0
WINDOW 123 0 0 Left 0
WINDOW 39 0 0 Left 0
SYMATTR InstName V1
SYMATTR Value PWL file=simulasi-filter/dac-output.txt
TEXT -200 320 Left 2 !.tran .005 startup
TEXT -200 352 Left 2 !.wave "reconstruction-out.wav" 16 100000  VIN OUTPUT
